New Loadshape.Load_shape_0 npts=288 minterval=5 Pmult=[1.5196661172945214, 0.8862706838150394, 0.1700605799148322, 1.1742147867575476, 1.043231767878687, 1.0025560643393723, 0.9333931986038926, 0.9455934950034788, 0.902392694241296, 0.9207634517092972, 0.9742446528058778, 0.9516125076361576, 1.1835636056018277, 1.2750302619968186, 0.41032593228295916, 0.7834550383444109, 1.4670658383461128, 0.7365593234278711, 0.7158664335186264, 0.6957891312932745, 0.6909714319417009, 0.7151519714103004, 0.7325484018210108, 0.6856726300150872, 0.4902287760850219, 0.9837799097155009, 0.5292799350852749, 0.12627818594746995, 0.5296279996756516, 0.7728051934910799, 0.27584591215716114, 0.30271777835108316, 0.34767845905406913, 0.27252730579187956, 0.3354064730285348, 0.2898240716172723, 0.15039274970656147, 0.621263285267801, 0.5230655520190663, 0.2458487263658939, 0.22021858766662483, 0.36321109897405246, 0.36977052969946184, 0.19338982960293297, 0.2946087263682695, 0.4078625032429616, 0.30944487540164517, 0.18892353568472883, 0.4717829148441633, 0.18394760886404043, 0.10145130815700748, 0.4807464454179276, 0.21986411908538112, 0.36620760363147997, 0.29310927697409267, 0.30457324780046696, 0.30176811499112477, 0.2931088870358018, 0.30517987406991687, 0.30226059912859654, 0.2611586850347164, 0.2722216768861206, 0.3623760948606007, 0.29026996886157785, 0.31899187720182387, 0.270981697155161, 0.9478880898305976, 1.0965160730293633, 1.3160563376208754, 1.4528534047122776, 1.0603198417086666, 0.4863662530982202, 0.23464568088296436, 0.30498391113602524, 0.4237072899506529, 0.2641689511004539, 0.23361737252663256, 0.20687679440327095, 0.43243000855248803, 0.33325662041841103, 0.12574139893416109, 0.476022717078432, 0.02946661566721244, 0.1990826393492955, 0.2944172309541342, 0.42265082596586434, 0.6362161962861812, 0.2784237240093381, 0.334056070724142, 0.6862359520603404, 0.8038827401342853, 0.7823574268915781, 0.840510993457082, 0.731059051702277, 0.7535102655491777, 0.7926795222655998, 0.7416665257595643, 0.19565345283555013, 0.6558242007360726, 0.37780811177698576, 0.31406622153652813, 0.09098148735529961, 0.7442878376102591, 0.7185748168018732, 0.8138680316683238, 0.7467724877021682, 0.8106617142377321, 0.7858351119796437, 0.4649345075642536, 0.20806919834006604, 0.5459535718709898, 0.774132344038275, 0.4478115279254775, 0.7510988502609376, 0.3312183764715612, 0.4723133406146164, 0.3155608099116197, 0.6001862010493129, 0.4917584595542648, 0.41696281239862537, 0.39383512926531133, 0.5243273473075304, 0.49785973467794126, 0.5588471621403904, 0.3865872639633972, 0.4825433626454293, 0.5057951866537399, 0.6338696826408213, 0.5577696819434463, 0.15978743647568588, 0.4350500710105086, 0.35972794127579805, 0.48931386849111863, 0.6034999312953014, 0.6068709316161373, 0.6483602523403543, 0.40355423422160086, 0.5484007820354878, 0.29857219161058607, 0.6663090412050825, 0.10729480958434405, 0.15405228572511656, 0.0998973768024345, 0.5338742950724361, 0.42763952149016843, 0.14208926512933132, 0.36946124534318164, 0.3172004434837421, 0.2469737274106711, 0.2846357971429054, 0.30513508972961123, 0.15666950753262868, 0.19055550421612072, 0.2477281928313865, 0.769336416541597, 0.4905752891486558, 0.41673416198941415, 0.37360968984903875, 0.30262736536719415, 0.409675863869536, 0.3302440076196188, 0.291108911305198, 0.2603533909607919, 0.3325904601230016, 0.24598464848471963, 0.3055598769912083, 0.255745138501219, 0.2797664849390598, 0.27417490937992295, 0.28955972651444783, 0.24579089033890933, 0.30410034704458905, 0.30261290909223365, 0.23976121762989716, 0.2737609015204085, 0.38152141685731017, 0.2607596611450284, 0.3092828932147438, 0.19387256280926018, 0.2128025644532494, 0.2588106697891788, 0.21042279772701977, 0.3160587175125039, 0.21484180040256243, 0.28392455633708436, 0.2999414582316507, 0.2932021866774369, 0.40683949336625347, 0.1456828521584159, 0.18863778680494217, 0.4287480228848601, 0.14488965810809173, 0.4014800659763124, 0.3790123980257821, 0.4833265165798696, 0.5369683771030223, 0.3888266748542665, 0.4623859674607469, 0.6971275807221832, 0.665006069924061, 0.6874745331068902, 0.8033099664208241, 0.5412345422703073, 0.5178473075557353, 0.32678717161482856, 0.48853422253992007, 0.4037404864704711, 0.5258861641903005, 0.3391027086987652, 0.3279492464857147, 0.41870209461319796, 0.4910220328139301, 0.40482115451190276, 0.45127627497291123, 0.4490485377558054, 0.41312990533225247, 0.29965323559681223, 0.21758063719293022, 0.4790017803232153, 0.3371493874380653, 0.2636693405013155, 0.3949456189476616, 0.546425072836271, 0.19770831738924347, 0.562254463931442, 0.7687673095082741, 0.43939237232728934, 0.5694524640074802, 0.6111942434961865, 0.33727926741926645, 0.5747147488007116, 0.35506203024631433, 0.1987227846302736, 0.3110269254072477, 0.32458141131069634, 0.3697257816474926, 0.34273377029416424, 0.3064141278777089, 0.2991235354595813, 0.33742137341035716, 0.7910701025392841, 0.5830497619440921, 0.5497359708297862, 0.6683248891952895, 0.5770875457181336, 0.2987317297734143, 0.42240460624949233, 0.4696670805683349, 0.6730689725442134, 0.5863160549556389, 0.9410110218619318, 0.7595322638203889, 0.7215598724684463, 0.4400957418108963, 0.6402572860227184, 0.4588963501053377, 0.4055404210173392, 0.6936503285752621, 0.573121432817529, 0.3724037931013529, 0.30596944554893607, 0.6420428190054706, 0.49942933486751384, 0.6190331746591978, 0.6961363478338145, 0.5655623175319547, 0.607453268142712, 0.9442208915037672, 0.6664140560417827, 0.5522131189459688, 0.5436548262892483, 0.5159543241582819, 0.4863667166269269, 0.535124812221022, 0.515449005292142, 0.5114503154123794, 0.5395713356458397, 0.48552829764664807, 0.5350806680602928, 0.4331380862415659, 0.5112952110852836, 0.47138640132036985, 0.3063248090571345, 0.30902126596847396, 0.3082507114973813, 0.3027637743958183, 0.30541840594045444, 0.3042210331407376] Qmult=[0.4994900979335869, 0.3216733044416971, 0.03453227358414787, 0.5002134045194694, 0.47531043561173114, 0.4567780375738548, 0.3976238375589247, 0.2757981027093481, 0.18323865185854807, 0.2685560067485454, 0.4718482208739655, 0.34538921964754493, 0.46777426835356983, 0.2589059372688968, 0.11967839691586309, 0.28435620817436164, 0.209045560063998, 0.14956474969275158, 0.14536287918313348, 0.29640492873789454, 0.09845809656457792, 0.17923397903837784, 0.33375891215834935, 0.27099516351914416, 0.1779292864081552, 0.388814699362194, 0.10747487471886887, 0.0415056325517543, 0.20932237935946543, 0.32921363384799474, 0.11750986650741492, 0.10987188209394076, 0.04954149724942273, 0.10770968325639192, 0.14288255919069187, 0.11454580253258576, 0.04386455199774716, 0.18120179153644178, 0.13109258442146607, 0.03503154619980603, 0.10033455273938285, 0.10593657053409873, 0.07508510850269896, 0.056405366967522096, 0.14268551845827926, 0.10221997880062925, 0.04409350664193562, 0.08607610581703361, 0.06722542443862428, 0.07836135323860152, 0.025426094545709814, 0.23283613033812658, 0.0641270347332362, 0.13291561158802534, 0.041765809933982816, 0.12037504995558633, 0.06127662925214588, 0.041765754370785495, 0.11076550351253456, 0.04306980271679554, 0.03721309715738847, 0.08947493827760421, 0.09082001027302011, 0.04136123043996099, 0.1544948173925652, 0.13124242593872115, 0.4590831548174865, 0.3604074042778972, 0.18752787160791604, 0.36411938594326737, 0.21530712690102088, 0.20719115620869172, 0.06843832359086464, 0.08895364074800736, 0.12358129290227371, 0.12035892990295909, 0.03328867267168135, 0.0603390650342874, 0.17090727520462354, 0.0676706429895774, 0.03667457468913032, 0.13883995914787606, 0.012552725709803631, 0.07225734939217204, 0.13414045335387279, 0.105926281839552, 0.3081335673172558, 0.06977956281721033, 0.09743302062787489, 0.22555484984451835, 0.3893381807446574, 0.11147989558475026, 0.11976633002733074, 0.21322555674649757, 0.29780631264421353, 0.3132869934591334, 0.21631940334654, 0.07732719248701587, 0.19128205854802122, 0.1609455816587838, 0.06377386629558984, 0.01847457896485671, 0.3391075571197366, 0.10239136588142222, 0.3216612282163115, 0.2178086422464659, 0.36934838872055537, 0.31058190942421415, 0.11652357137274831, 0.04225025273412482, 0.21577465835231663, 0.3527051159630243, 0.11223214815594774, 0.24687425349888903, 0.1309058786413586, 0.1866701766545865, 0.09203856955755585, 0.1218730061160846, 0.12324628743996852, 0.05941398290753913, 0.07997163385923393, 0.10646920887804723, 0.07094117002028492, 0.16299708895761383, 0.11275461865599082, 0.2198532511782366, 0.07207191068596107, 0.20834288943880835, 0.1397902592431481, 0.032446222836893794, 0.10903382557188758, 0.13056380819468008, 0.09935941876544986, 0.15125134007829794, 0.2398507394771057, 0.31401520210668166, 0.1719133838926141, 0.07814287922441399, 0.13603350935578445, 0.24183788878268733, 0.04888495946218415, 0.0746109272774707, 0.036257906176892965, 0.1338015107802072, 0.060935331556893485, 0.028852455867631892, 0.07502230563555756, 0.07949792479242293, 0.08963949328042227, 0.08301877416668071, 0.08899773450447002, 0.06191975142909569, 0.08681965264664927, 0.08142431938836124, 0.3277359410553405, 0.06990319274917524, 0.1898696935506971, 0.15915706140689118, 0.14656912257617336, 0.13465394472933634, 0.06705890586964573, 0.08490676579734953, 0.06525071045530927, 0.09700555086920878, 0.03505091405277632, 0.11090342615583261, 0.08405936200211765, 0.11918002351873584, 0.09011693475203583, 0.11444132666286376, 0.11904196135891032, 0.0886959345546719, 0.14656212108265634, 0.08702170178977671, 0.10819723148500048, 0.15078691232728278, 0.1030588124972099, 0.04407042543037965, 0.04858904435395228, 0.030322723156947694, 0.06486406808391261, 0.08963973646609988, 0.12491439804454127, 0.053844430679514645, 0.10305085333066603, 0.14526827837888787, 0.0734833946934615, 0.16079325643843734, 0.05287581470320732, 0.09136144995732368, 0.14092266024911695, 0.0660136784858724, 0.17102979192015488, 0.12457535089679932, 0.14097023400246214, 0.13457696083275944, 0.16563946987408965, 0.09389147524853765, 0.14155779283247028, 0.09475823286155506, 0.2717073211897779, 0.20132845526365012, 0.1356461626090751, 0.1879534747788781, 0.15827025079050233, 0.12243821747365861, 0.05752990350445252, 0.2546982939457507, 0.09890495670380661, 0.06659293474732021, 0.1376207233044547, 0.20917451006230722, 0.11807283673263838, 0.21856307535826588, 0.11254217204298524, 0.05886782323057021, 0.10875960159953708, 0.09913266699608002, 0.09726545995373546, 0.04804118580095828, 0.08666392124577592, 0.17994254006151703, 0.23277610628034726, 0.0842233905231083, 0.18480410536012742, 0.30383628225583864, 0.08922242661757715, 0.18716997357419762, 0.1241082844715489, 0.06848747630177446, 0.20859359982698747, 0.15125579150262908, 0.057960812183829855, 0.15063721517448403, 0.13827110220932845, 0.17906636878033386, 0.16599354102788264, 0.13053187187483492, 0.06073962447453063, 0.09841456724468758, 0.33699445252041976, 0.08308009146214537, 0.2504671078967073, 0.1949280926819594, 0.20945481010860303, 0.11806633430376531, 0.06018939653491223, 0.18562430776240035, 0.0959071342604669, 0.28396582583634106, 0.13408680847840307, 0.2496461824882807, 0.26189126275770425, 0.128361258028178, 0.27274846171388595, 0.20907935397013885, 0.18476967449320567, 0.31603642640957974, 0.08166538118227014, 0.1696721807872022, 0.08924108828510649, 0.310955529496758, 0.07116482593410252, 0.12570004733431242, 0.33715422123700856, 0.2052717108559754, 0.258774008614903, 0.4573070496049781, 0.16701910604528705, 0.07868610781291527, 0.15856599100103075, 0.2350757349635726, 0.1598610090433033, 0.1560780702311317, 0.21958035676363372, 0.1038544160284769, 0.2613263249901644, 0.06918403540967587, 0.07624486577929035, 0.12633194182045682, 0.072855621721693, 0.1863038268039133, 0.06220190544610866, 0.06274944437498275, 0.10131710927926471, 0.09951364026786468, 0.13915273675626705, 0.11041749072619783] useactual=no
New Loadshape.Load_shape_3 npts=288 minterval=5 Pmult=[0.31458318207335917, 0.29102771395043214, 0.32120813392239445, 0.28253083134659024, 0.2983422898228297, 0.2563078488843942, 0.17183821323560572, 0.1785404119385194, 0.12313347801825934, 0.07963889947490323, 0.19172838360230002, 0.09512061373041254, 0.1774021343482486, 0.17941108499968267, 0.18113869781696554, 0.177929535879129, 0.18190755158204222, 0.18221099537393193, 0.2924292774712413, 0.30664044911353816, 0.3559101483795203, 0.2844268822504889, 0.2947677457306297, 0.24182549705458142, 0.14307730049138997, 0.15499907027346618, 0.18932604010991116, 0.19341839901046426, 0.18066615496483546, 0.20651303514993305, 0.08023841168620988, 0.22442075481784338, 0.16294926284991715, 0.3964713727558008, 0.022979918779772044, 0.024940279110456685, 0.2450323106966296, 0.24744177504360493, 0.2596602064430949, 0.2560766499217054, 0.2824124211946234, 0.2693766367003418, 0.14425846529158004, 0.2795354485596401, 0.12353751274582012, 0.31350742749806876, 0.23503984141841325, 0.3921213044864779, 0.07390306914514791, 0.11194976221431338, 0.09074272020538092, 0.10732666202330948, 0.08876806545452495, 0.09130972095732334, 0.08307756638927667, 0.12747645705149163, 0.11094809392026882, 0.16667625886532048, 0.19339390688369937, 0.2064277168899431, 0.4376570200968438, 0.3383696944869163, 0.14245061117445304, 0.13759577763243414, 0.3059717966609582, 0.4019550999483946, 0.11029436027633968, 0.11693120747810361, 0.4883711060368683, 0.11761994326766957, 0.30917674408948875, 0.06960663885153028, 0.10539078394408098, 0.09135773645292042, 0.12111296380236752, 0.09574886939788599, 0.11240825704378747, 0.08598138935895759, 0.2797936617837923, 0.12727338933218638, 0.334769458547814, 0.1893498734938098, 0.2735462221452713, 0.13926739469712632, 0.6219235507553691, 0.6785366883943348, 0.37962501913177543, 0.844495234394026, 0.3935285108611674, 0.5378909964633273, 0.21085475086959055, 0.24041354357451872, 0.21200894630281913, 0.2414751624213972, 0.2135382914625984, 0.22570930536907605, 0.154590406669735, 0.1476377906123751, 0.13645950626245032, 0.14505165418589475, 0.15493993789899646, 0.14932070437054845, 0.20643837000414475, 0.18758149339532088, 0.15349265852985317, 0.16569777884493303, 0.1519617525194528, 0.14282794670629553, 0.12267610499872751, 0.11984389379592517, 0.13774576306948816, 0.14769478641169786, 0.10949913150132139, 0.1425403202228398, 0.09310996271398028, 0.38335857088648173, 0.11690468604217379, 0.28349350872525264, 0.07443298706227396, 0.39270028456983774, 0.12276319873914297, 0.09638379103195582, 0.09866072053108786, 0.09164920910932113, 0.09313766877877387, 0.09740541180971836, 0.22065739672383936, 0.1999420616813922, 0.21632033597250358, 0.1747357442493171, 0.24564109006145954, 0.226703371311488, 0.17939582895882755, 0.16783399509601835, 0.17691242354996012, 0.17080473214404127, 0.1747670081883949, 0.17428601206275784, 0.13672581953274396, 0.12986830876258038, 0.10344159875709903, 0.12627467194655861, 0.12363592304831088, 0.12405367795270714, 0.2626675016547785, 0.19362297963381475, 0.2737955061765314, 0.22518501270372188, 0.25595648931905496, 0.24077251051209836, 0.11713394667299226, 0.058716539945221524, 0.15323778823402184, 0.1368056097288208, 0.09730032142086074, 0.30080579399808266, 0.17735695470730692, 0.1848720113794487, 0.1677695861510636, 0.1789078586029775, 0.18425441806000428, 0.16283917109919904, 0.06500379886106059, 0.0909725103328514, 0.05693517284659537, 0.20358096530846834, 0.30295271453444356, 0.1445548381165808, 0.23017185267059817, 0.2781032617833188, 0.3346351492331126, 0.3989230281355542, 0.36414504721871827, 0.07402166095869799, 0.3129511022133837, 0.2266221327017363, 0.22621549780420916, 0.2623339226159247, 0.403169518198921, 0.29670782646582483, 0.21546775599027124, 0.38553881172093957, 0.24409408978758582, 0.23899160757386792, 0.5338149569638956, 0.3620927779634398, 0.17328793530949535, 0.1556842032052034, 0.1762368041382784, 0.19617285947624305, 0.16037206320606623, 0.17024613466471358, 0.3044553070069365, 0.2900876419349258, 0.29471566808273975, 0.2633951057889208, 0.30008424648525917, 0.2752620307012175, 0.31565152833419086, 0.3026220442322066, 0.3640812705073598, 0.3813629852010828, 0.33755099683505757, 0.49473117489010227, 0.3855933571988775, 0.2199257283459896, 0.2870594463466188, 0.39750115875347514, 0.35053662989070605, 0.5073836794643332, 0.2600458394833635, 0.26170767388124144, 0.27696464191746634, 0.2768306504930066, 0.25546328543814356, 0.26498790878677836, 0.24982195163199128, 0.22726775030624188, 0.22749622409459017, 0.21871419184093369, 0.13328407112359864, 0.2154158110026442, 0.30061997351565206, 0.27665118163778946, 0.2786157574571666, 0.3117684780388674, 0.2715054577191418, 0.2768391516313822, 0.04836660816887513, 0.7426144176102273, 0.46154082661822843, 0.25700962963682167, 0.5874368220851, 1.1190316958807476, 0.8335728021954605, 0.6327979554979973, 0.8133245970201175, 0.7293493734950244, 0.7721214433777166, 0.8388338284136839, 0.209050576020072, 0.2698839750569048, 0.20117473432997354, 0.27367822038092726, 0.21480002130873527, 0.24741247290338694, 0.2031052881855307, 0.27478237536565886, 0.25839271173442524, 0.19504965540353716, 0.22999093606204696, 0.25467903324880115, 1.4035468184509858, 1.2712204497086697, 1.2890338069696567, 1.4941676051829886, 1.2555937211175552, 1.266437598570145, 1.3787078695201118, 0.531110577591048, 1.2078974005740943, 0.9790147626156804, 0.8359218061895116, 0.9233475835095537, 0.8524114922912613, 0.9749813995122821, 0.8210660759319894, 1.1077609557189028, 0.8896117035576724, 1.522168372987892, 0.23432337609163847, 0.28878738002859744, 0.1314015943995321, 0.2047040841547239, 0.25329533359526196, 0.267488231730246, 0.31124429905987305, 0.3997831981228868, 0.24396463089423145, 0.3458713913107353, 0.35862063234236446, 0.40451584826990866, 0.14235932362994905, 0.13869435673765812, 0.14067514418576313, 0.14603739812702507, 0.13131705965639098, 0.16491671766321353] Qmult=[0.0917534281047298, 0.12397728698908178, 0.10557600807445482, 0.08240482580942218, 0.14449376576913744, 0.11677730592087733, 0.043066715803531594, 0.05207428681540158, 0.05245464198242504, 0.026176040411338017, 0.03893210877980562, 0.023839472963842315, 0.036023039794368966, 0.05232823312490753, 0.08772947539430047, 0.07032225228151373, 0.08287952902291063, 0.08301778209892653, 0.1332347149887048, 0.14851274774309328, 0.16215745424326217, 0.08295784065639261, 0.1069864055570971, 0.08777093517406387, 0.02038741113853913, 0.04520806216309433, 0.08065255535495366, 0.08239589294637847, 0.07696345973120709, 0.06787755216602694, 0.03886123643671131, 0.0956028412163419, 0.05914268495448798, 0.1920198497610422, 0.003274461081418273, 0.0090521125674886, 0.08053822578123081, 0.09779524711075835, 0.10262428019463592, 0.08416832453671669, 0.11161653085057574, 0.03838409184870774, 0.036154579415044796, 0.039831644139275896, 0.05262676005562299, 0.1335536048596278, 0.06855328708037052, 0.1670429762202412, 0.029208361878343185, 0.047690399000169824, 0.022742269421565296, 0.038954376646108485, 0.042992336303319806, 0.018541229640458748, 0.037851257492229166, 0.03194861168598403, 0.04384949250985715, 0.06587467261887488, 0.027557139237216532, 0.04191693570940715, 0.08887004831793473, 0.11121674025207733, 0.05630008400331443, 0.054381331012475824, 0.13034343956555772, 0.1588628206371202, 0.05025159513217626, 0.05327543205095933, 0.1223973366244721, 0.04269033886610229, 0.09017655035943421, 0.020301936331696316, 0.041653103067142414, 0.030027835857194558, 0.039807906132941225, 0.01944263717715492, 0.05121471495301618, 0.012251684432845179, 0.11058153090498975, 0.03712140522188771, 0.08390113502410133, 0.0748358585184525, 0.08991029525087715, 0.02827945063718561, 0.26493832319488153, 0.13778275113638613, 0.11072396391343438, 0.3065108409808176, 0.1676424436255945, 0.24507037813896648, 0.0833351298992871, 0.03425707459739042, 0.07694897233299741, 0.034408347090157505, 0.06228200167659119, 0.0961517614525683, 0.05610882527940788, 0.06726576464538969, 0.049528187159449816, 0.020668741303173924, 0.05623568817533281, 0.06361035369405525, 0.07492712311879825, 0.07413694998254745, 0.050450597120409585, 0.054462226169771956, 0.049947412648268186, 0.06084445051127877, 0.05225980189199565, 0.03003571101976695, 0.06275882374763175, 0.06729173269873921, 0.03599062405537449, 0.02894404651079182, 0.030603764777881962, 0.1746633250002155, 0.0384247121229878, 0.13730217285368249, 0.033912670792599804, 0.1672896207029308, 0.04035031212647011, 0.03167982010908494, 0.03580905988588144, 0.0130593050065695, 0.03681036208188792, 0.04437921672224335, 0.06435840737778646, 0.04059996724942492, 0.09855845679607714, 0.07961195706776156, 0.03500195962883176, 0.06612181663251739, 0.07090176838804288, 0.05516436649672846, 0.0753643768446157, 0.04280770102666301, 0.043800741009587855, 0.08441056820603023, 0.03426672043399457, 0.02637088483613292, 0.033999609325748095, 0.04150447755550909, 0.0526686826689335, 0.056520525469461444, 0.11189588714188922, 0.0765246981285734, 0.10821090812022555, 0.0656789620385855, 0.12396538565391198, 0.08738875209293664, 0.042513945656429214, 0.028437718215065553, 0.02183520222954838, 0.019493743605875673, 0.013864544899199083, 0.11888605693685456, 0.07009595372226915, 0.08423017680899549, 0.04204702173746108, 0.02549298915151117, 0.026254832612721827, 0.05910272698465779, 0.0213657154618745, 0.02990121815462814, 0.00811282274044002, 0.07389002370056084, 0.08836120840587941, 0.036228857446606436, 0.08354122706542172, 0.11847149342135381, 0.09760191852632455, 0.09997953514939334, 0.16590938499824376, 0.010547515433542359, 0.1515691365353119, 0.03229190498153731, 0.10956116604347724, 0.12705411757171498, 0.10104380587985538, 0.04227857546519104, 0.09817000988022767, 0.0966251343224314, 0.09647215723717609, 0.10888779329876827, 0.15569602911446948, 0.1753695363698384, 0.056956989955494246, 0.06153033424130325, 0.04416910659760769, 0.07120124032294994, 0.0582072863897122, 0.02425876033609853, 0.14745443511865414, 0.1321678343193468, 0.11647908516047743, 0.07682357252176862, 0.04275968926085376, 0.1254130862847533, 0.09206502909747241, 0.07584423353473128, 0.1321438557183229, 0.0543412822691811, 0.04809841204065843, 0.23960924395167815, 0.0782980706621732, 0.07228609122721141, 0.05828990669748324, 0.05664084745602535, 0.16977263841143408, 0.12716233668514978, 0.052804559868937, 0.12675081146638112, 0.13414009833912946, 0.10941047391057847, 0.11639251144672584, 0.06641223010998877, 0.10642370574689358, 0.07469929714542045, 0.07477439284810047, 0.06379163928693894, 0.04380835565185601, 0.10433063900015369, 0.07534246731553648, 0.10933954328036635, 0.11868981566419046, 0.14204591507789724, 0.08923952842159383, 0.05621458734132245, 0.020604088800499583, 0.35966457781992145, 0.1346160744303168, 0.10157670520973351, 0.2502470383009737, 0.44226962566908345, 0.3551005267549238, 0.30647803774387977, 0.3705616339592928, 0.35324002373327934, 0.15678594613907346, 0.17033247369217686, 0.08262207437255328, 0.10666497210211433, 0.07950934256260454, 0.11658643367760606, 0.030607345343726645, 0.05023924537190856, 0.06675747990435633, 0.05579694110758096, 0.05246887796238082, 0.07079357168149793, 0.06708068968476373, 0.06382858235965194, 0.2850023370917754, 0.6156801639158245, 0.46785679792554813, 0.5905328239259935, 0.6081117938328459, 0.25716112254219753, 0.40212312861003335, 0.13310885788833274, 0.5850114114742163, 0.3869313927214143, 0.2747542108668989, 0.187493723607094, 0.1730895359336964, 0.38533730562227864, 0.3740887559538261, 0.22494045597092469, 0.35159704284660076, 0.6484410115517912, 0.11348799072141404, 0.13986611174605917, 0.05193323315266935, 0.08090423086790767, 0.11540476340592315, 0.06703887010813472, 0.14180709207948444, 0.05696602045480831, 0.08854733708310729, 0.14734059571092054, 0.1417359431436247, 0.17232302976180483, 0.056264004857134134, 0.04045252071515026, 0.06813208193041721, 0.04800017152603065, 0.05982981994063378, 0.07987281182159742] useactual=no