new transformer.hv_F0_LV28_TX phases=3 windings=2 buses=[linebus2, HV_F0_LV28_busbar] conns=[delta, wye] kVs=[22, 0.433] kVAs=[500, 500] %loadloss=1.3 %noloadloss=0.12 Xhl=3.85 Wdg=1 NumTaps=5 Tap= 1.025 MaxTap=1.137 MinTap=1.028